Version 4
SHEET 1 1536 1112
WIRE -1120 16 -1152 16
WIRE -1008 16 -1040 16
WIRE -1152 144 -1152 16
WIRE -1104 144 -1152 144
WIRE -1008 144 -1008 16
WIRE -1008 144 -1056 144
WIRE -1152 192 -1280 192
WIRE -1120 192 -1152 192
WIRE -928 192 -1040 192
WIRE -784 192 -864 192
WIRE -640 192 -784 192
WIRE -640 256 -640 192
WIRE -784 272 -784 192
WIRE -1280 352 -1280 192
WIRE -1152 416 -1152 192
WIRE -1120 416 -1152 416
WIRE -976 416 -1040 416
WIRE -912 416 -976 416
WIRE -784 416 -784 336
WIRE -784 416 -832 416
WIRE -640 416 -640 336
WIRE -1104 464 -1152 464
WIRE -1024 464 -1056 464
WIRE -1280 496 -1280 432
WIRE -976 496 -976 416
WIRE -1152 544 -1152 464
WIRE -1120 544 -1152 544
WIRE -1024 544 -1024 464
WIRE -1024 544 -1040 544
FLAG -1280 496 0
FLAG -640 416 0
FLAG -976 496 v_batt
SYMBOL voltage -1280 336 R0
WINDOW 123 0 0 Left 0
WINDOW 39 0 0 Left 0
WINDOW 0 -202 53 Left 2
SYMATTR InstName input_voltage
SYMATTR Value 530
SYMBOL res -656 240 R0
SYMATTR InstName Load
SYMATTR Value 21k
SYMBOL sw -1024 192 R90
SYMATTR InstName S1
SYMATTR Value MYSW1
SYMBOL voltage -1136 16 R270
WINDOW 0 32 56 VTop 2
WINDOW 3 -32 56 VBottom 2
WINDOW 123 0 0 Left 0
WINDOW 39 0 0 Left 0
SYMATTR InstName V2
SYMATTR Value 0
SYMBOL Misc\\battery -928 416 R270
WINDOW 0 -32 56 VBottom 2
WINDOW 3 -60 56 VBottom 2
WINDOW 123 0 0 Left 0
WINDOW 39 -88 56 VBottom 2
SYMATTR InstName charge_batt
SYMATTR Value 12
SYMATTR SpiceLine Rser=0.02
SYMBOL sw -1136 416 R270
SYMATTR InstName S2
SYMATTR Value MYSW2
SYMBOL voltage -1024 544 R90
WINDOW 0 -32 56 VBottom 2
WINDOW 3 32 56 VTop 2
WINDOW 123 0 0 Left 0
WINDOW 39 0 0 Left 0
SYMATTR InstName V3
SYMATTR Value 0.6
SYMBOL diode -768 336 R180
WINDOW 0 24 64 Left 2
WINDOW 3 24 0 Left 2
SYMATTR InstName D1
SYMBOL cap -864 176 R90
WINDOW 0 0 32 VBottom 2
WINDOW 3 32 32 VTop 2
SYMATTR InstName C1
SYMATTR Value 4.8
SYMATTR SpiceLine V=12
TEXT -904 -16 Left 2 !.model MYSW1 SW(Ron=1 Roff=1Meg Vt=.5 Vh=0) \n.model MYSW2 SW(Ron=1 Roff=1Meg Vt=.5 Vh=0)
TEXT -904 40 Left 2 !.meas TRAN power FIND I(Charge_batt) AT 4ms
TEXT -904 64 Left 2 !.tran 10m
TEXT -904 88 Left 2 !.step param run 1 2 1
