Version 4
SHEET 1 880 680
WIRE 320 -48 64 -48
WIRE 320 16 320 -48
WIRE 64 112 64 -48
WIRE 320 128 320 96
WIRE 448 128 320 128
WIRE 320 160 320 128
WIRE 64 304 64 192
WIRE 320 304 320 240
WIRE 320 304 64 304
WIRE 64 320 64 304
FLAG 448 128 Vout
FLAG 64 320 0
SYMBOL voltage 64 96 R0
WINDOW 123 0 0 Left 0
WINDOW 39 0 0 Left 0
SYMATTR InstName V1
SYMATTR Value SINE(0 10 1k)
SYMBOL res 336 112 R180
WINDOW 0 36 76 Left 2
WINDOW 3 36 40 Left 2
SYMATTR InstName R1
SYMATTR Value 1k
SYMBOL res 304 144 R0
SYMATTR InstName R2
SYMATTR Value 2k
TEXT 120 -104 Left 2 !.tran 10ms
