Version 4
SHEET 1 1536 1112
WIRE -1120 16 -1152 16
WIRE -1008 16 -1040 16
WIRE -1152 144 -1152 16
WIRE -1104 144 -1152 144
WIRE -1008 144 -1008 16
WIRE -1008 144 -1056 144
WIRE -1152 192 -1280 192
WIRE -1120 192 -1152 192
WIRE -912 192 -1040 192
WIRE -816 192 -848 192
WIRE -640 192 -816 192
WIRE -640 256 -640 192
WIRE -1280 304 -1280 192
WIRE -1152 416 -1152 192
WIRE -1120 416 -1152 416
WIRE -912 416 -1040 416
WIRE -816 416 -816 192
WIRE -816 416 -832 416
WIRE -640 416 -640 336
WIRE -1280 448 -1280 384
WIRE -1104 464 -1152 464
WIRE -1024 464 -1056 464
WIRE -1152 544 -1152 464
WIRE -1120 544 -1152 544
WIRE -1024 544 -1024 464
WIRE -1024 544 -1040 544
FLAG -1280 448 0
FLAG -640 416 0
SYMBOL voltage -1280 288 R0
SYMATTR InstName V1
SYMATTR Value 5
SYMBOL res -656 240 R0
SYMATTR InstName Load
SYMATTR Value 1k
SYMBOL cap -848 176 R90
WINDOW 0 0 32 VBottom 2
WINDOW 3 32 32 VTop 2
SYMATTR InstName C1
SYMATTR Value 1
SYMBOL sw -1024 192 R90
SYMATTR InstName S1
SYMATTR Value MYSW1
SYMBOL voltage -1136 16 R270
WINDOW 0 32 56 VTop 2
WINDOW 3 -32 56 VBottom 2
WINDOW 123 0 0 Left 0
WINDOW 39 0 0 Left 0
SYMATTR InstName V2
SYMATTR Value 0
SYMBOL Misc\\battery -816 416 R90
WINDOW 0 -32 56 VBottom 2
WINDOW 3 88 56 VTop 2
WINDOW 123 0 0 Left 0
WINDOW 39 60 56 VTop 2
SYMATTR InstName Battery
SYMATTR Value 1
SYMATTR SpiceLine Rser=10
SYMBOL sw -1136 416 R270
SYMATTR InstName S2
SYMATTR Value MYSW2
SYMBOL voltage -1024 544 R90
WINDOW 0 -32 56 VBottom 2
WINDOW 3 32 56 VTop 2
WINDOW 123 0 0 Left 0
WINDOW 39 0 0 Left 0
SYMATTR InstName V3
SYMATTR Value 2
TEXT -904 -16 Left 2 !.model MYSW1 SW(Ron=1 Roff=1Meg Vt=.5 Vh=0) \n.model MYSW2 SW(Ron=1 Roff=1Meg Vt=.5 Vh=0)
TEXT -904 40 Left 2 !.meas TRAN Vpeak FIND V(n006) AT 4m
TEXT -904 64 Left 2 !.tran 10m
